54

Fe -2.78390 -2.78390 -2.78390
Fe -1.39195 -1.39195 -1.39195
Fe -2.78390 -2.78390  0.00000
Fe -1.39195 -1.39195  1.39195
Fe -2.78390 -2.78390  2.78390
Fe -1.39195 -1.39195  4.17585
Fe -2.78390  0.00000 -2.78390
Fe -1.39195  1.39195 -1.39195
Fe -2.78390  0.00000  0.00000
Fe -1.39195  1.39195  1.39195
Fe -2.78390  0.00000  2.78390
Fe -1.39195  1.39195  4.17585
Fe -2.78390  2.78390 -2.78390
Fe -1.39195  4.17585 -1.39195
Fe -2.78390  2.78390  0.00000
Fe -1.39195  4.17585  1.39195
Fe -2.78390  2.78390  2.78390
Fe -1.39195  4.17585  4.17585
Fe  0.00000 -2.78390 -2.78390
Fe  1.39195 -1.39195 -1.39195
Fe  0.00000 -2.78390  0.00000
Fe  1.39195 -1.39195  1.39195
Fe  0.00000 -2.78390  2.78390
Fe  1.39195 -1.39195  4.17585
Fe  0.00000  0.00000 -2.78390
Fe  1.39195  1.39195 -1.39195
Fe  0.00000  0.00000  0.00000
Fe  1.39195  1.39195  1.39195
Fe  0.00000  0.00000  2.78390
Fe  1.39195  1.39195  4.17585
Fe  0.00000  2.78390 -2.78390
Fe  1.39195  4.17585 -1.39195
Fe  0.00000  2.78390  0.00000
Fe  1.39195  4.17585  1.39195
Fe  0.00000  2.78390  2.78390
Fe  1.39195  4.17585  4.17585
Fe  2.78390 -2.78390 -2.78390
Fe  4.17585 -1.39195 -1.39195
Fe  2.78390 -2.78390  0.00000
Fe  4.17585 -1.39195  1.39195
Fe  2.78390 -2.78390  2.78390
Fe  4.17585 -1.39195  4.17585
Fe  2.78390  0.00000 -2.78390
Fe  4.17585  1.39195 -1.39195
Fe  2.78390  0.00000  0.00000
Fe  4.17585  1.39195  1.39195
Fe  2.78390  0.00000  2.78390
Fe  4.17585  1.39195  4.17585
Fe  2.78390  2.78390 -2.78390
Fe  4.17585  4.17585 -1.39195
Fe  2.78390  2.78390  0.00000
Fe  4.17585  4.17585  1.39195
Fe  2.78390  2.78390  2.78390
Fe  4.17585  4.17585  4.17585
